<?xml version="1.0" encoding="UTF-8"?>

<!-- generated on 2021-10-01 00:11:00 by Eclipse SUMO GUI Version 1.9.2
<configuration xmlns:xsi="http://www.w3.org/2001/XMLSchema-instance" xsi:noNamespaceSchemaLocation="http://sumo.dlr.de/xsd/sumoConfiguration.xsd">

    <input>
        <net-file value="C:\Users\Thomas%20Tseng\Documents\GitHub\Traffic-Light-Project\data\cross.net.xml"/>
        <route-files value="C:\Users\Thomas%20Tseng\Documents\GitHub\Traffic-Light-Project\data\cross.rou.xml"/>
        <additional-files value="C:\Users\Thomas%20Tseng\Documents\GitHub\Traffic-Light-Project\data\cross.det.xml"/>
    </input>

    <time>
        <begin value="0"/>
    </time>

    <report>
        <verbose value="true"/>
        <no-step-log value="true"/>
    </report>

</configuration>
